REMARK  4 active torsions:
REMARK  status: ('A' for Active; 'I' for Inactive)
REMARK    1  A    between atoms: C3_3  and  O3_4 
REMARK    2  A    between atoms: C12_15  and  O12_16 
REMARK    3  A    between atoms: C14_19  and  O14_20 
REMARK    4  A    between atoms: C17_24  and  C20_26 
ROOT
ATOM      1  C1  DGX     1      32.029  34.249  69.627  1.00 -0.20     0.012 C 
ATOM      2  C2  DGX     1      33.151  34.093  68.566  1.00 -0.20     0.032 C 
ATOM      3  C3  DGX     1      34.551  34.398  69.134  1.00 -0.07     0.118 C 
ATOM      4  C4  DGX     1      34.580  35.747  69.873  1.00 -0.20     0.037 C 
ATOM      5  C5  DGX     1      33.440  35.951  70.923  1.00 -0.10    -0.004 C 
ATOM      6  C6  DGX     1      33.560  37.366  71.558  1.00 -0.20     0.006 C 
ATOM      7  C7  DGX     1      33.104  38.497  70.609  1.00 -0.20     0.008 C 
ATOM      8  C8  DGX     1      31.673  38.282  70.017  1.00 -0.10     0.026 C 
ATOM      9  C9  DGX     1      31.509  36.834  69.401  1.00 -0.10     0.003 C 
ATOM     10  C10 DGX     1      31.988  35.647  70.355  1.00  0.00    -0.036 C 
ATOM     11  C19 DGX     1      31.006  35.447  71.550  1.00 -0.30     0.016 C 
ATOM     12  C11 DGX     1      30.064  36.670  68.833  1.00 -0.20     0.038 C 
ATOM     13  C12 DGX     1      29.699  37.764  67.813  1.00 -0.07     0.130 C 
ATOM     14  C13 DGX     1      29.828  39.253  68.343  1.00  0.00     0.021 C 
ATOM     15  C14 DGX     1      31.231  39.454  69.049  1.00  0.03     0.072 C 
ATOM     16  C15 DGX     1      32.198  39.755  67.881  1.00 -0.20     0.040 C 
ATOM     17  C16 DGX     1      31.375  40.236  66.678  1.00 -0.20     0.013 C 
ATOM     18  C17 DGX     1      29.881  40.214  67.084  1.00  0.00     0.030 C 
ATOM     19  C18 DGX     1      28.643  39.540  69.322  1.00 -0.30     0.022 C 
ENDROOT
BRANCH   3  20
ATOM     20  O3  DGX     1      34.918  33.369  70.035  1.00 -0.38    -0.396 OA
ATOM     21  H6  DGX     1      34.220  33.371  70.693  1.00  0.35     0.210 HD
ENDBRANCH   3  20
BRANCH  13  22
ATOM     22  O12 DGX     1      28.388  37.469  67.348  1.00 -0.38    -0.395 OA
ATOM     23  H19 DGX     1      27.827  37.631  68.111  1.00  0.35     0.210 HD
ENDBRANCH  13  22
BRANCH  15  24
ATOM     24  O14 DGX     1      31.227  40.630  69.861  1.00 -0.38    -0.389 OA
ATOM     25  H20 DGX     1      31.512  40.308  70.720  1.00  0.35     0.210 HD
ENDBRANCH  15  24
BRANCH  18  26
ATOM     26  C20 DGX     1      29.335  41.653  67.159  1.00 -0.20    -0.045 A 
ATOM     27  C22 DGX     1      28.306  42.176  66.495  1.00 -0.10     0.087 A 
ATOM     28  C23 DGX     1      28.187  43.629  66.815  1.00  0.41     0.283 A 
ATOM     29  O21 DGX     1      29.203  43.967  67.670  1.00 -0.18    -0.314 OA
ATOM     30  O23 DGX     1      27.332  44.411  66.397  1.00 -0.38    -0.260 OA
ATOM     31  C21 DGX     1      29.898  42.756  68.014  1.00  0.05     0.213 A 
ENDBRANCH  18  26
TORSDOF 4
